Hello world!
New line.
Another new line.